* source INVERSOR
E_ABM1         N00059 0 VALUE { -A*sin(2*3.1416*fm*time)    }
E_E1         VG1 0 TABLE { V(N00059, N00604) } 
+ ( (-1,-1) (-0.005,-1) (0,0) (0.005,1) (1,1) )
V_V1         N00604 0  
+PULSE 1V -1V 238.096us 476.2us 476.2us 0.00000000001ns {1/fs}
G_ABMII1         0 VG4 VALUE { 1 - V(VG1)    }
R_R1         0 VG4  0.5  
E_ABM2         N29631 0 VALUE { -A*sin(2*3.1416*fm*time+(2*3.1416/3))    }
E_E2         VG3 0 TABLE { V(N29631, N00604) } 
+ ( (-1,-1) (-0.005,-1) (0,0) (0.005,1) (1,1) )
G_ABMII2         0 VG6 VALUE { 1 - V(VG3)    }
R_R2         0 VG6  0.5  
E_E3         VG5 0 TABLE { V(N30075, N00604) } 
+ ( (-1,-1) (-0.005,-1) (0,0) (0.005,1) (1,1) )
E_ABM3         N30075 0 VALUE { -A*sin(2*3.1416*fm*time-(2*3.1416/3))    }
R_R3         0 VG2  0.5  
G_ABMII3         0 VG2 VALUE { 1 - V(VG5)    }
X_S1    VG1 0 N33647 VA SCHEMATIC1_S1 
X_S2    VG4 0 VA 0 SCHEMATIC1_S2 
X_S3    VG3 0 N33647 VB SCHEMATIC1_S3 
X_S4    VG6 0 VB 0 SCHEMATIC1_S4 
X_S5    VG5 0 N33647 VC SCHEMATIC1_S5 
X_S6    VG2 0 VC 0 SCHEMATIC1_S6 
R_Ra         VA N33637  10  
R_Rb         VB N33631  10  
R_Rc         VC N33625  10  
V_V2         N33647 0 550
D_D1         VA N33647 Dbreak 
D_D2         VB N33647 Dbreak 
D_D3         VC N33647 Dbreak 
D_D4         0 VA Dbreak 
D_D5         0 VB Dbreak 
D_D6         0 VC Dbreak 
L_Lb         N33631 VN  10mH  
L_La         N33637 VN  10mH  
L_Lc         N33625 VN  10mH  
.PARAM  fm=50 a=0.6 fs=550

.subckt SCHEMATIC1_S1 1 2 3 4  
S_S1         3 4 1 2 _S1
RS_S1         1 2 1G
.MODEL         _S1 VSWITCH Roff=1e6 Ron=1.0 Voff=0.0V Von=1.0V
.ends SCHEMATIC1_S1

.subckt SCHEMATIC1_S2 1 2 3 4  
S_S2         3 4 1 2 _S2
RS_S2         1 2 1G
.MODEL         _S2 VSWITCH Roff=1e6 Ron=1.0 Voff=0.0V Von=1.0V
.ends SCHEMATIC1_S2

.subckt SCHEMATIC1_S3 1 2 3 4  
S_S3         3 4 1 2 _S3
RS_S3         1 2 1G
.MODEL         _S3 VSWITCH Roff=1e6 Ron=1.0 Voff=0.0V Von=1.0V
.ends SCHEMATIC1_S3

.subckt SCHEMATIC1_S4 1 2 3 4  
S_S4         3 4 1 2 _S4
RS_S4         1 2 1G
.MODEL         _S4 VSWITCH Roff=1e6 Ron=1.0 Voff=0.0V Von=1.0V
.ends SCHEMATIC1_S4

.subckt SCHEMATIC1_S5 1 2 3 4  
S_S5         3 4 1 2 _S5
RS_S5         1 2 1G
.MODEL         _S5 VSWITCH Roff=1e6 Ron=1.0 Voff=0.0V Von=1.0V
.ends SCHEMATIC1_S5

.subckt SCHEMATIC1_S6 1 2 3 4  
S_S6         3 4 1 2 _S6
RS_S6         1 2 1G
.MODEL         _S6 VSWITCH Roff=1e6 Ron=1.0 Voff=0.0V Von=1.0V
.ends SCHEMATIC1_S6
