* source HARTLEY_FET_I
J_J1         N00189 N00171 0 2N5486/PLP
L_L1         N00171 N00167  5uH  
V_V1         N00167 0 -1
C_C1         N00189 N00171  101pF  
L_L2         N00308 N00189  5uH  
V_V2         N00308 0 12
R_R1         0 N00499  50 TC=0,0 
X_TX1    N00308 N00189 N00499 0 SCHEMATIC1_TX1 

.subckt SCHEMATIC1_TX1 1 2 3 4  
K_TX1         L1_TX1 L2_TX1 0,5
L1_TX1         1 2 5uH
L2_TX1         3 4 5uH
.ends SCHEMATIC1_TX1
